Version 4
SHEET 1 1312 720
WIRE -32 304 -64 304
WIRE -32 544 -64 544
WIRE -16 352 -16 288
WIRE -16 592 -16 528
WIRE 32 352 -16 352
WIRE 32 592 -16 592
WIRE 80 208 -16 208
WIRE 80 272 32 272
WIRE 80 352 32 352
WIRE 80 352 80 336
WIRE 80 368 80 352
WIRE 80 448 -16 448
WIRE 80 512 32 512
WIRE 80 592 32 592
WIRE 80 592 80 576
WIRE 80 608 80 592
WIRE 272 256 256 256
WIRE 272 496 256 496
WIRE 368 336 320 336
FLAG 272 256 o_u
IOPIN 272 256 Out
FLAG -64 304 up
IOPIN -64 304 In
FLAG 80 368 ref
IOPIN 80 368 BiDir
FLAG 272 496 o_d
IOPIN 272 496 Out
FLAG -64 544 down
IOPIN -64 544 In
FLAG 80 608 ref
IOPIN 80 608 BiDir
FLAG 320 416 ref
IOPIN 320 416 BiDir
FLAG 368 336 out
IOPIN 368 336 Out
SYMBOL SpecialFunctions\\sample 160 240 R0
WINDOW 0 1 16 Left 0
SYMATTR InstName A1
SYMATTR SpiceLine vhigh=100g
SYMBOL bv -16 192 R0
WINDOW 0 -7 57 Left 0
WINDOW 3 -3 -29 Left 0
SYMATTR InstName B1
SYMATTR Value V=if(v(out) > 0.1, vdel(v(o_u) , {td}), 1+vdel(v(o_u), {td}))
SYMBOL bv 32 256 R0
WINDOW 0 -6 60 Left 0
WINDOW 3 -85 108 Left 0
SYMATTR InstName B3
SYMATTR Value V=v(up) -v(ref) - {vtrig} + 0.5
SYMBOL SpecialFunctions\\sample 160 480 R0
WINDOW 0 1 16 Left 0
SYMATTR InstName A2
SYMATTR SpiceLine vhigh=100g
SYMBOL bv -16 432 R0
WINDOW 0 -7 57 Left 0
WINDOW 3 -2 -25 Left 0
SYMATTR InstName B2
SYMATTR Value V=if(v(out) < -0.1, vdel(v(o_d), {td}), 1+vdel(v(o_d), {td}))
SYMBOL bv 32 496 R0
WINDOW 0 -6 60 Left 0
WINDOW 3 -105 110 Left 0
SYMATTR InstName B4
SYMATTR Value V=v(down) -v(ref) - {vtrig} + 0.5
SYMBOL bv 320 320 R0
WINDOW 0 -6 58 Left 0
WINDOW 3 -72 1 Left 0
SYMATTR InstName B5
SYMATTR Value V=delay(limit(v(o_u)-v(o_d), 1, -1), {td})
TEXT 192 608 Left 0 !.func vdel(x, td) {delay(x-v(ref), td)}
TEXT 192 624 Left 0 !.params td=10n vtrig=0
