Version 4
SHEET 1 1312 680
WIRE -16 208 -112 208
WIRE 80 208 -16 208
WIRE 304 256 256 256
WIRE 80 272 32 272
WIRE -48 304 -64 304
WIRE -32 304 -48 304
WIRE -48 336 -48 304
WIRE -48 336 -96 336
WIRE -16 352 -16 288
WIRE 32 352 -16 352
WIRE 80 352 80 336
WIRE 80 352 32 352
WIRE 80 368 80 352
WIRE 240 432 224 432
WIRE 352 432 288 432
FLAG -64 304 in
IOPIN -64 304 In
FLAG -96 416 0
FLAG 224 432 in
IOPIN 224 432 In
FLAG 240 448 0
FLAG 80 368 0
FLAG 304 336 0
SYMBOL SpecialFunctions\\sample 160 240 R0
WINDOW 0 1 16 Left 0
SYMATTR InstName A1
SYMATTR SpiceLine vhigh=1g
SYMBOL bv -16 192 R0
WINDOW 0 -7 57 Left 0
WINDOW 3 -50 7 Left 0
SYMATTR InstName B1
SYMATTR Value V=(time)*1meg
SYMBOL bv 32 256 R0
WINDOW 0 -6 60 Left 0
WINDOW 3 -85 108 Left 0
SYMATTR InstName B2
SYMATTR Value V=v(in) - {vtrig} + 0.5
SYMBOL voltage -96 320 R0
WINDOW 123 0 0 Left 0
WINDOW 39 0 0 Left 0
SYMATTR InstName V1
SYMATTR Value SINE(0 1 1meg)
SYMBOL pll\\edge_count 304 464 R0
SYMATTR InstName U1
SYMBOL res 288 240 R0
SYMATTR InstName R1
SYMATTR Value 1g
TEXT 120 376 Left 0 !.params td=10n vtrig=0
TEXT -130 436 Left 0 !.tran 0 50u 0 50n uic
