Version 4
SHEET 1 1312 680
WIRE 80 208 -16 208
WIRE 272 256 256 256
WIRE 448 256 416 256
WIRE 528 256 496 256
WIRE 80 272 32 272
WIRE -48 304 -64 304
WIRE -32 304 -48 304
WIRE 272 304 272 256
WIRE 304 304 272 304
WIRE -48 336 -48 304
WIRE -48 336 -96 336
WIRE -16 352 -16 288
WIRE 32 352 -16 352
WIRE 80 352 80 336
WIRE 80 352 32 352
WIRE 80 368 80 352
FLAG 272 256 out
IOPIN 272 256 Out
FLAG -64 304 in
IOPIN -64 304 In
FLAG 80 368 ref
IOPIN 80 368 BiDir
FLAG -96 416 0
FLAG 304 384 0
FLAG 528 336 0
FLAG 416 256 in
IOPIN 416 256 In
FLAG 448 272 0
SYMBOL SpecialFunctions\\sample 160 240 R0
WINDOW 0 1 16 Left 0
SYMATTR InstName A1
SYMBOL bv -16 192 R0
WINDOW 0 -7 57 Left 0
WINDOW 3 -50 7 Left 0
SYMATTR InstName B1
SYMATTR Value V=time*1g
SYMBOL bv 32 256 R0
WINDOW 0 -6 60 Left 0
WINDOW 3 -85 108 Left 0
SYMATTR InstName B2
SYMATTR Value V=v(in) -v(ref) - {vtrig} + 0.5
SYMBOL voltage -96 320 R0
WINDOW 0 -7 58 Left 0
WINDOW 123 0 0 Left 0
WINDOW 39 0 0 Left 0
SYMATTR InstName V1
SYMATTR Value SINE(0 1 1meg)
SYMBOL res 288 288 R0
SYMATTR InstName R1
SYMATTR Value 1k
SYMBOL pll\\edge_count 512 288 R0
SYMATTR InstName U1
SYMATTR Value vtrig=0
SYMBOL res 512 240 R0
SYMATTR InstName R2
SYMATTR Value 10k
TEXT 120 376 Left 0 !.params vtrig=0
TEXT 120 392 Left 0 !.tran 0 50u 0 50n uic
