Version 4
SHEET 1 1312 680
WIRE -32 304 -64 304
WIRE -16 352 -16 288
WIRE 32 352 -16 352
WIRE 80 208 -16 208
WIRE 80 272 32 272
WIRE 80 352 32 352
WIRE 80 352 80 336
WIRE 80 368 80 352
WIRE 272 256 256 256
FLAG 272 256 out
IOPIN 272 256 Out
FLAG -64 304 in
IOPIN -64 304 In
FLAG 80 368 ref
IOPIN 80 368 BiDir
SYMBOL SpecialFunctions\\sample 160 240 R0
WINDOW 0 1 16 Left 0
SYMATTR InstName A1
SYMATTR SpiceLine vhigh=100g td=100n
SYMBOL bv -16 192 R0
WINDOW 0 -7 57 Left 0
WINDOW 3 -50 7 Left 0
SYMATTR InstName B1
SYMATTR Value V=1+delay(v(out) - v(ref), {td})
SYMBOL bv 32 256 R0
WINDOW 0 -6 60 Left 0
WINDOW 3 -85 108 Left 0
SYMATTR InstName B2
SYMATTR Value V=v(in) -v(ref) - {vtrig} + 0.5
TEXT 120 376 Left 0 !.parmas td=10n vtrig=0
